[General]
network = TsnTestNetwork
sim-time-limit = 300s
description = "Traffic shaping using time-aware shapers"

**.displayGateSchedules = false
**.gateFilter = "**.eth[1].**"
**.gateScheduleVisualizer.height = 16
**.gateScheduleVisualizer.placementHint = "top"

# delay replayer container
*.delayreplayerContainer.delayreplayers = {uplink: {file: "../../../deterministic6g_data/PD-Wireless-5G-1/s1-UL_trace_timestamped.csv", timestampOffset: 5ms},
										   downlink: {file: "../../../deterministic6g_data/PD-Wireless-5G-1/s10-DL_trace.csv", offset: 100}}

*.detCom.dstt[0].delayUplink = rngProvider("delayreplayerContainer", "uplink")
*.detCom.dstt[0].delayDownlink = rngProvider("delayreplayerContainer", "downlink")

# client applications
*.device1.numApps = 2
*.device1.app[0].typename = "UdpSourceApp"
*.device1.app[0].io.destAddress = "device2"
*.device1.app[0].io.destPort = 1001
*.device1.app[0].source.packetLength = 1000B - 54B # 54B = 8B (UDP) + 20B (IP) + 14B (ETH MAC) + 4B (ETH FCS) + 8B (ETH PHY)
*.device1.app[0].source.productionInterval = 10ms

# enable outgoing streams
*.device1.hasOutgoingStreams = true

# server applications
*.device2.numApps = 2
*.device2.app[0].typename = "UdpSinkApp"
*.device2.app[0].io.localPort = 1001

*.device2.app[1].typename = "UdpSourceApp"
*.device2.app[1].io.destAddress = "device1"
*.device2.app[1].io.destPort = 1002
*.device2.app[1].source.packetLength = 1000B - 54B # 54B = 8B (UDP) + 20B (IP) + 14B (ETH MAC) + 4B (ETH FCS) + 8B (ETH PHY)
*.device2.app[1].source.productionInterval = 10ms

# enable outgoing streams
*.device2.hasOutgoingStreams = true

*.device1.app[1].typename = "UdpSinkApp"
*.device1.app[1].io.localPort = 1002